LTspice 24.1.10 for Windows
Circuit: C:\Users\Death\OneDrive\Desktop\Eng Inf\1º-1S\física aplicada\LTspice\Draft3a.net
Start Time: Wed Nov  5 14:21:08 2025
solver = Normal
Maximum thread count: 16
tnom = 27
temp = 27
method = trap
Direct Newton iteration for .op point succeeded.
Total elapsed time: 0.573 seconds.

Files loaded:
C:\Users\Death\OneDrive\Desktop\Eng Inf\1º-1S\física aplicada\LTspice\Draft3a.net

